<?xml version="1.0" encoding="UTF-8"?>

<!-- generated on 2025-09-14 10:17:01.285599 by randomTrips.py v1_24_0+0000-b72eb3fabc8
<configuration>
    <net-file value="simulation_files/map.net.xml"/>
    <route-file value="simulation_files/trips.trips.xml"/>
    <end value="50.0"/>
</configuration>
-->

<!-- generated on 2025-09-14 10:17:01 by Eclipse SUMO duarouter Version 1.24.0
<duarouterConfiguration xmlns:xsi="http://www.w3.org/2001/XMLSchema-instance" xsi:noNamespaceSchemaLocation="http://sumo.dlr.de/xsd/duarouterConfiguration.xsd">

    <input>
        <net-file value="simulation_files/map.net.xml"/>
        <route-files value="trips.trips.xml"/>
    </input>

    <output>
        <output-file value="simulation_files/trips.trips.xml"/>
        <alternatives-output value="NUL"/>
    </output>

    <time>
        <begin value="0"/>
        <end value="50.0"/>
    </time>

    <report>
        <no-warnings value="true"/>
        <ignore-errors value="true"/>
        <no-step-log value="true"/>
    </report>

</duarouterConfiguration>
-->

<routes xmlns:xsi="http://www.w3.org/2001/XMLSchema-instance" xsi:noNamespaceSchemaLocation="http://sumo.dlr.de/xsd/routes_file.xsd">
    <vehicle id="0" depart="0.00">
        <route edges="27085402#15 1381344955#0 1381344955#1 1381344955#2 -251308530 -1225191486 144763024#0 144763024#1 144763024#2 952392263 887586455 885581559 1378649261 59285321#0 59285321#1 59285321#2 1378649267#0 1378649267#1 1378649267#2 1378649267#3 1378649267#4 251308510#0 1320211316#3 144763030#0 144763030#1 144763030#2 144763030#3 144763030#4 144763030#5 144763030#6 261815511#0 261815511#1 261815511#2 261815511#3 261815511#4 261815511#5 261815511#6 -381689886#2 -381689886#1 -381689886#0 -242897860#10 -242897860#9 -242897860#8 -242897860#7 -242897860#6 -242897860#5 -1353084001#1 -1353084001#0 -39393259#8 -1335076237#3 -1335076237#2 -1335076237#1"/>
    </vehicle>
    <vehicle id="1" depart="1.00">
        <route edges="45763023#0 45763023#1 45763023#2 45763023#3 261815511#1 261815511#2 261815511#3 261815511#4 261815511#5 261815511#6 -381689886#2 -381689886#1 -381689886#0 -242897860#10 -242897860#9 -242897860#8 -242897860#7 -242897860#6 -242897860#5 -242897860#4 -242897860#3 -242897860#2"/>
    </vehicle>
    <vehicle id="2" depart="2.00">
        <route edges="144775072#2 144775072#3 144775072#4 144775072#5 144775072#6 144775072#7 144775072#8 144775072#9 144775072#10 144775072#11 144775072#12 -144775072#12 -144775072#11 -144775072#10 -144775072#9 -144775072#8 -144775072#7 -144775072#6 -144775072#5 -144775072#4 -144775072#3 -144775072#2 -144775072#1 -144775072#0 294519923#5 294519923#6 294519923#7 294519923#8 294519923#9 294519923#10 294519923#11 294519923#12 294519923#13 294519923#14 886233771 1218039398 393957072 856432650#0 856432650#1 856432641 381689882#0 381689882#1 381689882#2 381689882#3 381689882#4 381689882#5 381689879 381689880 381689881 381689878 258834782 1292756087 393957069#0 393957069#1 393957069#2 393957069#3 393957069#4 393957069#5 393957069#6 251308513 251308515#0 251308515#1 251308515#2 251308515#3 251308515#4 1319817772#0 1319817772#1 965405376#0 965405376#1 965405375 965405377 26959131 965405384 251308528#0 251308528#1 -251308509#3 -251308509#2 -251308509#1 -251308509#0 -95939308#3 -95939308#2 -95939308#1 -95939308#0 -95939305 -381689884#5 -381689884#4 -381689884#3 -381689884#2 -381689884#1 -381689884#0 -1348406586 -216480480#11 -216480480#10 -216480480#9 -216480480#8 -216480480#7 -216480480#6 -216480480#5 -216480480#4 -216480480#3 -216480480#2 -216480480#1 -216480480#0 -1410853757 -1348406585#2 -1348406585#1"/>
    </vehicle>
    <vehicle id="3" depart="3.00">
        <route edges="-39683342#1 39683342#1 39683342#2 39683342#3 39683342#4 39683342#5 39683342#6 -39683425#1 -39683425#0 39683422#3 39683431#0 39683431#1 209758753#0"/>
    </vehicle>
    <vehicle id="4" depart="4.00">
        <route edges="-1335076237#2 -1335076237#1 -1335076237#0 -39393258#1 -39393258#0 -1353083246#1 -1353083246#0 1353083246#0 1353083246#1 39393258#0 39393258#1 1335076237#0 1335076237#1 1335076237#2 1335076237#3 39393259#8 1353084001#0 1353084001#1 242897860#5 242897860#6 242897860#7 242897860#8 242897860#9 242897860#10 381689886#0 381689886#1 381689886#2 381689885#0 381689885#1 381689885#2 381689885#3 381689885#4 381689885#5 381689885#6 381689885#7 381689885#8 251308523#0 251308523#1 251308523#2 251308523#3 251308523#4 251308523#5 39383378#0 39383378#1 39383378#2 1100735529#0 1100735529#1 1100735527#0 1100735527#1 1100735527#2 1378649265 1378649264 1378649262 1378649263 -39433590#4 -39433590#3 -39433590#2 -39433590#1 -39433594#4 -39433594#3"/>
    </vehicle>
    <vehicle id="5" depart="5.00">
        <route edges="-39683342#4 -39683342#3 -39683342#2 -39683342#1 -39683342#0 -170232040#5 -170232040#4 -170232040#3 -170232040#2 -170232040#1 -170232040#0 1319817772#0 1319817772#1 965405376#0 965405376#1 965405375 965405377 26959131 965405384 251308528#0 251308528#1 -251308509#3 -251308509#2 -251308509#1 -251308509#0 36990137#0 36990137#1 36990137#2 36990137#3 45766795 45766793 89882385 89882383#0 89882383#1 89882383#2 89882383#3 89882382 89882384 45763027 45763023#0 45763023#1 45763023#2 45763023#3 45763023#4 251308523#0 251308523#1 251308523#2"/>
    </vehicle>
    <vehicle id="6" depart="6.00">
        <route edges="39436623#1 -139633245#2 -139633245#1 -139633245#0 692356901#0 692356901#1 692356901#2 155235380#0 155235380#1 856432637#0 856432637#1 393957072 856432650#0 856432650#1 856432641 381689882#0 381689882#1 381689882#2 381689882#3 381689882#4 381689882#5 381689879 381689880 381689881 381689878 258834782 1292756087 393957069#0 393957069#1 393957069#2 393957069#3 393957069#4 393957069#5 393957069#6 251308513 -375809348#7 -375809348#6 -375809348#5 -375809348#4 -375809348#3 -375809348#2 -375809348#1 -375809348#0 -1069102647#4 -1069102647#3 -1069102647#2 -1069102647#1 -1069102647#0 -1069102646#8"/>
    </vehicle>
    <vehicle id="7" depart="7.00">
        <route edges="39436618#4 39436597#2 39436597#3 39436597#4 692356898#3 692356898#4 692356898#5 245926142#11 245926142#12 245926142#13 245926142#14 245926142#15 245926142#16 245926142#17 692356901#0 692356901#1 692356901#2 155235380#0 155235380#1 856432637#0 856432637#1 393957072 856432650#0 856432650#1 856432641 144763024#0 144763024#1 144763024#2 952392263 887586455 885581559 1378649261 59285321#0 59285321#1 59285321#2 1378649267#0 1378649267#1 1378649267#2 1378649267#3 1378649267#4 251308510#0 1320211316#3 144763030#0 144763030#1 144763030#2 144763030#3 144763030#4 144763030#5 144763030#6 261815511#0 261815511#1 261815511#2 261815511#3 261815511#4 157862116#2 381689885#4 381689885#5 381689885#6 381689885#7 381689885#8"/>
    </vehicle>
    <vehicle id="8" depart="8.00">
        <route edges="1284902689#3 1284902689#4 157862107#0 157862107#1 157862107#2 157862107#3 157862107#4 157862107#5 157862107#6 261815511#4 261815511#5 261815511#6 -381689886#2 -381689886#1 -381689886#0 216480484#0 216480484#1 216480484#2 216480484#3 -166444523#1 -166444523#0 39393250#0 39393250#1 39393250#2 39393250#3 -39393252#3 -39393252#2 -39393252#1"/>
    </vehicle>
    <vehicle id="9" depart="9.00">
        <route edges="886671961#1 886671961#2 886671961#3 893372312#0 893372312#1 893372312#2 893372312#3 251308519#0 251308519#1 965405382 965405379 251308529 965405374#0 965405374#1 965405374#2 1319974947#0 1319974947#1 19020758#0 19020758#1 19020758#2 19020758#3 19020758#4 19020758#5 19020758#6 144763035#0 144763035#1 144763035#2 144763035#3 144763035#4 144763035#5 1377700065#0 1377700065#1 1377700065#2 275655298#0 275655298#1 275655298#2 275655298#3 27739902 216480481 261815516 251455095 170232052 238709695 1367643353 251455100 381689877 -381689882#5 -381689882#4 -381689882#3 -381689882#2 -381689882#1 -381689882#0 1225191486"/>
    </vehicle>
    <vehicle id="10" depart="10.00">
        <route edges="-245926142#1 -245926142#0 245926142#0 245926142#1 245926142#2 245926142#3 245926142#4 245926142#5 -245926142#5 -245926142#4 -245926142#3 -245926142#2"/>
    </vehicle>
    <vehicle id="11" depart="11.00">
        <route edges="39683427 -39683342#7 -39683342#6 -39683342#5 -39683342#4 -39683342#3 -39683342#2 -39683342#1 -39683342#0 -170232040#5 -170232040#4 -170232040#3 -170232040#2 -170232040#1 -170232040#0 -1319974946 -251311712#16 -251311712#15 -251311712#14 -251311712#13 -251311712#12 -251311712#11 251311712#11"/>
    </vehicle>
    <vehicle id="12" depart="12.00">
        <route edges="39436622#0 39436622#1 39436622#2 692356898#2 692356898#3 692356898#4 692356898#5 245926142#11 245926142#12 245926142#13 245926142#14 245926142#15 245926142#16 245926142#17 692356901#0 692356901#1 692356901#2 155235380#0 155235380#1 856432637#0 856432637#1 393957072 856432650#0 856432650#1 856432641 144763024#0 144763024#1 144763024#2 952392263 887586455 885581559 1378649261 59285321#0 59285321#1 59285321#2 1378649267#0 1378649267#1 1378649267#2 1378649267#3 1378649267#4 251308510#0 1320211316#3 144763030#0 144763030#1 144763030#2 144763030#3 144763030#4 144763030#5 144763030#6 261815511#0 261815511#1 261815511#2 261815511#3 157862107#7 157862107#8 157862107#9 236959050#0 236959050#1 236959053#0 60719572#2 60719572#3 60719572#4 60719572#5 60719572#6 689794343#0 689794343#1 -39393272#5 -39393272#4 -39393272#3 -39393272#2 39393274"/>
    </vehicle>
    <vehicle id="13" depart="13.00">
        <route edges="216480484#6 89849995#0 89849995#1 95939306#0 95939306#1 95939306#2 95939306#3 381689884#4 381689884#5 95939305 95939308#0 95939308#1 95939308#2 95939308#3 36990137#0 36990137#1 36990137#2 36990137#3 45766795 45766793 89882385 89882383#0"/>
    </vehicle>
    <vehicle id="14" depart="14.00">
        <route edges="137189955#1 -137189955#1 -137189955#0 -139633245#2 -139633245#1 -139633245#0 692356901#0 692356901#1 692356901#2 155235380#0 155235380#1 856432637#0 856432637#1 393957072 856432650#0 856432650#1 856432641 144763024#0 144763024#1 144763024#2 952392263 887586455 885581559 1378649261 59285321#0 59285321#1 59285321#2 1378649267#0 1378649267#1 1378649267#2 1378649267#3 1378649267#4 251308510#0 1320211316#3 144763030#0 144763030#1 144763030#2 144763030#3 144763030#4 144763030#5 144763030#6 261815511#0 261815511#1 261815511#2 261815511#3 157862107#7 157862107#8 157862107#9 236959050#0 236959050#1 236959053#0 236959053#1"/>
    </vehicle>
    <vehicle id="15" depart="15.00">
        <route edges="39683407#1 39683407#2 39683407#3 39683407#4 39683407#5 39683407#6 39683407#7 39683407#8 -39683408#3 -39683408#2 -39683408#1 -39683408#0 -170232040#2 -170232040#1 -170232040#0 1319817772#0 1319817772#1 965405376#0 965405376#1 965405375 965405377 26959131 965405384 251308528#0 251308528#1 -251308509#3 -251308509#2 -251308509#1 -251308509#0 36990137#0 36990137#1 36990137#2 36990137#3 45766795 45766793 89882385 89882383#0 89882383#1 89882383#2 89882383#3 89882382 89882384 45763027 45763023#0 45763023#1 45763023#2 45763023#3 261815511#1"/>
    </vehicle>
    <vehicle id="16" depart="16.00">
        <route edges="415221610#1 415221610#2 886233768 18570435#0 18570435#1 18570435#2 -1381344955#2 -1381344955#1 -1381344955#0 1381344955#0 1381344955#1 1381344955#2 -251308530 -1225191486 144763024#0 144763024#1 144763024#2 952392263 887586455 885581559 1378649261 59285321#0 59285321#1 59285321#2 1378649267#0 1378649267#1 1378649267#2 1378649267#3 1378649267#4 251308510#0 251308510#1 251308510#2 251308510#3"/>
    </vehicle>
    <vehicle id="17" depart="17.00">
        <route edges="39393242#0 39393242#1 39393242#2 39393242#3 381689886#2 381689885#0 381689885#1 381689885#2 381689885#3 381689885#4 381689885#5 381689885#6 381689885#7 381689885#8 251308523#0 251308523#1 251308523#2 251308523#3 251308523#4 251308523#5 39383378#0 39383378#1 39383378#2 1100735526 251308522#0 251308522#1 251308522#2 251308522#3 1033446440 1033446433 -1033446437#1 -1033446437#0 -261815503 -144763014 -887586458 415221607 887586454 251455097 886233768 18570435#0 18570435#1 18570435#2 886233770 856432646 1225134825 1381387150#0 1381387150#1 155235356#0 155235356#1 155235356#2 -692356901#2 -692356901#1 -692356901#0 139633245#0 139633245#1 139633245#2 137189955#0 137189955#1 -137189955#1 -137189955#0 -139633245#2 -139633245#1"/>
    </vehicle>
    <vehicle id="18" depart="18.00">
        <route edges="-39683368#4 -39683368#3 -39683368#2 -39683368#1 -39683368#0 170232040#13 170232040#14 1416783850#0 1416783850#1 1416783850#2 39683502#0 39683502#1 39683502#2 1069102646#8 1069102647#0 1069102647#1 1069102647#2 1069102647#3 1069102647#4 375809348#0 375809348#1 375809348#2 375809348#3 375809348#4 375809348#5 375809348#6 375809348#7 -251308513 144763035#0 144763035#1 144763035#2 144763035#3 144763035#4 144763035#5 1377700065#0 1377700065#1 1377700065#2 275655298#0 275655298#1 275655298#2 275655298#3 27739902 216480481 261815516 251455095 170232052 1225191488#0 1225191488#1 243502036 887586457 261815525 415221607 887586454 251455097 886233768 18570435#0 18570435#1 18570435#2 886233770 856432646 1225134825 1381387150#0 1381387150#1 155235356#0 155235356#1 155235356#2 -692356901#2 -692356901#1 -692356901#0 139633245#0 139633245#1 139633245#2 137189955#0 137189955#1 896047306 306838996#0 306838996#1 306838996#2 306838996#3 139633247#0 139633247#1 139633247#2 1204012492 896047307#0 896047307#1 -896047307#1 -896047307#0"/>
    </vehicle>
    <vehicle id="19" depart="19.00">
        <route edges="-216480480#9 216480480#9 216480480#10 216480480#11 1348406586 381689884#0 381689884#1 381689884#2 381689884#3 381689884#4 381689884#5 95939305 95939308#0 95939308#1 95939308#2 95939308#3 251308509#0 251308509#1 251308509#2 251308509#3 251308517 45766796#4 45766796#5 965405386 251308529 965405374#0 965405374#1 965405374#2 1319974947#0 1319974947#1 1319974946 170232040#0 170232040#1 170232040#2 39683408#0 39683408#1 39683408#2 39683408#3 -39683407#8 -39683407#7 -39683407#6"/>
    </vehicle>
    <vehicle id="20" depart="20.00">
        <route edges="27085402#0 27085402#1 27085402#2 27085402#3 27085402#4 27085402#5 27085402#6 27085402#7 27085402#8 27085402#9 27085402#10 27085402#11 27085402#12 27085402#13 27085402#14 27085402#15 1381344955#0 1381344955#1 1381344955#2 -251308530 -1225191486 381689882#0 381689882#1 381689882#2 381689882#3 381689882#4 381689882#5 381689879 381689880 381689881 381689878 258834782 1292756087 393957069#0 393957069#1 393957069#2 393957069#3 393957069#4 393957069#5 393957069#6 251308513 251308515#0 251308515#1 251308515#2 251308515#3 251308515#4 1319817772#0 1319817772#1 965405376#0 965405376#1 965405375 965405377 26959131 965405384 251308528#0 251308528#1 -251308509#3 -251308509#2 -251308509#1 -251308509#0 -95939308#3 -95939308#2 -95939308#1 -95939308#0 -95939305 -381689884#5 -381689884#4 -381689884#3 -381689884#2 -381689884#1 -381689884#0 -1348406586 -216480480#11 -216480480#10 -216480480#9 -216480480#8 -216480480#7 -216480480#6 -216480480#5 -216480480#4 -216480480#3 -216480480#2 -216480480#1 -216480480#0 -1410853757 -1348406585#2 -1348406585#1 -1348406585#0 1348406585#0 1348406585#1"/>
    </vehicle>
    <vehicle id="21" depart="21.00">
        <route edges="1354563692 39433614#1 39433614#2 1284902691#0 1284902691#1 1284902691#2 1284902691#3 1284902691#4 1378649264 1378649262 1378649263 1225134827 415221610#0 415221610#1 415221610#2 886233768 18570435#0 18570435#1 18570435#2 886233770 856432646 1225134825 1381387150#0 1381387150#1 155235356#0 155235356#1 155235356#2 -692356901#2 -692356901#1 -692356901#0 139633245#0 139633245#1 139633245#2 137189955#0 137189955#1 896047306 306838996#0 306838996#1 306838996#2 306838996#3 -39436592#3"/>
    </vehicle>
    <vehicle id="22" depart="22.00">
        <route edges="-45644146#13 39393242#0 39393242#1 39393242#2 39393242#3 381689886#2 381689885#0 381689885#1 381689885#2 381689885#3 381689885#4 381689885#5 381689885#6 381689885#7 381689885#8 251308523#0 251308523#1 251308523#2 251308523#3 251308523#4 251308523#5 39383378#0 39383378#1 39383378#2 1100735526 251308522#0 251308522#1 251308522#2 251308522#3 1033446440 1033446433 -1033446437#1 -1033446437#0 -261815503 -144763014 -887586458 415221607 887586454 251455097 886233768 18570435#0 18570435#1 18570435#2 886233770 856432646 1225134825 1381387150#0 1381387150#1 155235356#0 155235356#1 155235356#2 -692356901#2 -692356901#1 -692356901#0 -245926142#17 -245926142#16 -245926142#15 -245926142#14 -245926142#13 -245926142#12 -245926142#11 -245926142#10 -245926142#9 -245926142#8 -245926142#7 -245926142#6 39436618#0 39436618#1 39436618#2 39436618#3 39436618#4 692356900#0 692356900#1 692356900#2 692356900#3"/>
    </vehicle>
    <vehicle id="23" depart="23.00">
        <route edges="27739902 216480481 261815516 251455095 170232052 144776663#0 144776663#1 1033446439#0 1033446439#1 1033446438 886645247#0 886645247#1 886645247#2 1319817771 251311712#0 251311712#1 251311712#2 251311712#3 251311712#4 251311712#5 251311712#6"/>
    </vehicle>
    <vehicle id="24" depart="24.00">
        <route edges="-39393277#0 39393277#0 39393277#1 39393277#2 39393277#3 216480480#9 216480480#10 216480480#11 -689794343#3 -689794343#2 -39393272#5 -39393272#4 39393272#4 39393272#5"/>
    </vehicle>
    <vehicle id="25" depart="25.00">
        <route edges="-39393259#8 39393259#8 1353084001#0 1353084001#1 242897860#5 242897860#6 242897860#7 242897860#8 242897860#9 242897860#10 381689886#0 381689886#1 381689886#2 381689885#0 381689885#1 381689885#2 381689885#3 381689885#4 381689885#5 381689885#6 381689885#7 381689885#8 251308523#0 251308523#1 251308523#2 251308523#3 251308523#4 251308523#5 39383378#0 39383378#1 39383378#2 1100735526 251308522#0 251308522#1 251308522#2 251308522#3 1033446440 1033446433 -1033446437#1 -1033446437#0 -261815503 -144763014 -887586458 415221607 887586454 251455097 886233768 18570435#0 18570435#1 18570435#2 886233770 856432646 1225134825 1381387150#0 1381387150#1 155235356#0 155235356#1 155235356#2 -692356901#2 -692356901#1 -692356901#0 139633245#0 139633245#1 139633245#2 137189955#0 137189955#1 896047306 306838996#0 306838996#1 306838996#2 306838996#3 -39436592#3 -39436592#2 -39436592#1 -39436592#0 137189954#0 137189954#1 137189954#2"/>
    </vehicle>
    <vehicle id="26" depart="26.00">
        <route edges="95939308#1 95939308#2 95939308#3 251308509#0 251308509#1 251308509#2 251308509#3 251308517 45766796#4 45766796#5 965405386 251308529 965405374#0 965405374#1 965405374#2 1319974947#0 1319974947#1 19020758#0 19020758#1 19020758#2 19020758#3 19020758#4 19020758#5 19020758#6 144763035#0 144763035#1 144763035#2 144763035#3 144763035#4 144763035#5 1377700065#0 1377700065#1 1377700065#2 275655298#0 275655298#1 275655298#2 275655298#3 27739902 216480481 261815516 251455095 170232052 238709695 1367643353 251455100 381689877 -381689882#5 -381689882#4 -381689882#3 -381689882#2 -381689882#1 -381689882#0 1225191486 251308530 -1381344955#2 -1381344955#1 -1381344955#0 -27085402#15 -27085402#14 -27085402#13 -27085402#12 27085402#12 27085402#13"/>
    </vehicle>
    <vehicle id="27" depart="27.00">
        <route edges="242897860#4 242897860#5 242897860#6 242897860#7 242897860#8 242897860#9 242897860#10 381689886#0 381689886#1 381689886#2 381689885#0 381689885#1 381689885#2 381689885#3 381689885#4 381689885#5 381689885#6 381689885#7 381689885#8 251308523#0 251308523#1 251308523#2 251308523#3 251308523#4 251308523#5 39383378#0 39383378#1 39383378#2 1100735529#0 1100735529#1 1100735527#0 1100735527#1 1100735527#2 1378649265 1378649264 1378649262 1378649263 1225134827 1278152595 144763023 887586453 170232042 887586456 1367643346 1367643345 170232044#0 170232044#1 170232044#2 1367643353 251455100 381689877"/>
    </vehicle>
    <vehicle id="28" depart="28.00">
        <route edges="39683421#1 39683407#4 39683407#5 39683407#6 39683407#7 39683407#8 -39683408#3 -39683408#2 -39683408#1 -39683408#0 -170232040#2 -170232040#1 -170232040#0 -1319974946 19020758#0 19020758#1 19020758#2 19020758#3 19020758#4 19020758#5 19020758#6 144763035#0 144763035#1 144763035#2 144763035#3 144763035#4 144763035#5 1377700065#0 1377700065#1 1377700065#2 275655298#0 275655298#1 275655298#2 275655298#3 27739902 216480481 261815516 251455095 170232052 238709695 1367643353 251455100 381689877 -381689882#5 -381689882#4 -381689882#3 -381689882#2 -381689882#1 -381689882#0 1225191486 251308530 -1381344955#2 -1381344955#1 -1381344955#0 39433593#0 39433593#1"/>
    </vehicle>
    <vehicle id="29" depart="29.00">
        <route edges="-39683368#6 39683417#0 39683417#1 39683417#2 -39683342#3 -39683342#2 -39683342#1 -39683342#0 -170232040#5 -170232040#4 -170232040#3 -170232040#2 -170232040#1 -170232040#0 1319817772#0 1319817772#1 965405376#0 965405376#1 965405375 965405377 26959131 965405384 251308528#0 251308528#1 -251308509#3 -251308509#2 -251308509#1 -251308509#0 36990137#0 36990137#1 36990137#2 36990137#3 45766795 45766793 89882385 89882383#0 89882383#1 89882383#2 89882383#3 89882382 89882384 45763027 45763023#0 45763023#1 45763023#2 45763023#3 261815511#1 261815511#2 261815511#3 261815511#4 261815511#5 261815511#6 -381689886#2 -381689886#1 -381689886#0 -45644146#14 -45644146#13 -45644146#12 1353045291#0 1353045291#1 1353045291#2 1353045291#3 -39433535#3 -39433535#2 -39433535#1 -39433535#0 39433535#0 39433535#1 39433535#2 39433535#3 -1353045291#3 -1353045291#2 -1353045291#1"/>
    </vehicle>
    <vehicle id="30" depart="30.00">
        <route edges="1100735527#1 1100735527#2 1378649265 1378649264 26959128 1378649267#0 1378649267#1 1378649267#2 1378649267#3 1378649267#4 251308510#0 1320211316#3 144763030#0 144763030#1 144763030#2 144763030#3 144763030#4 144763030#5 144763030#6 261815511#0 261815511#1 261815511#2 261815511#3 261815511#4 261815511#5 261815511#6 -381689886#2 -381689886#1 -381689886#0 -45644146#14 -45644146#13 -45644146#12 -45644146#11"/>
    </vehicle>
    <vehicle id="31" depart="31.00">
        <route edges="-39436621#1 -39436621#0 39436622#2 692356898#2 692356898#3 692356898#4 692356898#5 245926142#11 245926142#12 245926142#13 245926142#14 245926142#15 245926142#16 245926142#17 692356901#0 692356901#1 692356901#2 155235380#0 155235380#1 856432637#0 856432637#1 393957072 856432650#0 856432650#1 856432641"/>
    </vehicle>
    <vehicle id="32" depart="32.00">
        <route edges="45365732#1 45365730#0 45365730#1 45365730#2 251308515#0 251308515#1 251308515#2 251308515#3 251308515#4 1319817772#0 1319817772#1 965405376#0 965405376#1 965405375 965405377 26959131 965405384 251308528#0 251308528#1 -251308509#3 -251308509#2 -251308509#1 -251308509#0 -95939308#3 -95939308#2 -95939308#1 -95939308#0 -95939305 -381689884#5 -381689884#4 -381689884#3 -381689884#2 -381689884#1 -381689884#0 -1348406586 -216480480#11 -216480480#10 -216480480#9 -216480480#8 -216480480#7 -216480480#6 -216480480#5 -216480480#4 -216480480#3 -216480480#2 -216480480#1 -216480480#0 -1410853757 285189319#0 285189319#1 107936982#0 107936982#1 107936982#2"/>
    </vehicle>
    <vehicle id="33" depart="33.00">
        <route edges="-45644146#10 -45644146#9 39433518#0 39433518#1 39433518#2 218879500#0 218879500#1 218879500#2 -39433576#1 -39433576#0 381689885#2 381689885#3 381689885#4 381689885#5 381689885#6 381689885#7 381689885#8 251308523#0 159474237 261815519#0 261815519#1 261815519#2 261815519#3 261815519#4 159474238 159474234 159474231 159474232#0 159474232#1 159474236 159474235 159474239 159474233#0 159474233#1 159474233#2 159474233#3 251308509#1 251308509#2 251308509#3 251308517 45766796#4 45766796#5 965405386 251308529 965405374#0 965405374#1 965405374#2 1319974947#0 1319974947#1 1319974946 170232040#0 170232040#1 170232040#2 39683408#0 39683408#1 39683408#2 39683408#3 -39683407#8 -39683407#7 -39683407#6 -39683407#5 -39683407#4 -39683407#3 -39683425#0"/>
    </vehicle>
    <vehicle id="34" depart="34.00">
        <route edges="245926142#1 245926142#2 245926142#3 245926142#4 245926142#5 245926142#6 245926142#7 245926142#8 245926142#9 245926142#10 245926142#11 245926142#12 245926142#13 245926142#14 245926142#15 245926142#16 245926142#17 692356901#0 692356901#1 692356901#2 155235380#0 155235380#1 856432637#0 856432637#1 393957072 856432650#0 856432650#1 856432641 144763024#0 144763024#1 144763024#2 952392263 887586455 885581559 1378649261 59285321#0 59285321#1 59285321#2 1378649267#0 1378649267#1 1378649267#2 1378649267#3 1378649267#4 251308510#0 1320211316#3 144763030#0 144763030#1 144763030#2 144763030#3 144763030#4 144763030#5 144763030#6 261815511#0 261815511#1 261815511#2 261815511#3 261815511#4 157862116#2 1320211315 157862118#0 157862118#1 -39433576#3 -39433576#2 -218879500#2 -218879500#1 -218879500#0 -39433518#2 -39433518#1 -39433518#0 -45644146#8 339253173#0 339253173#1 45640243#0 45640243#1 45640243#2 45640243#3 -45640243#3 -45640243#2"/>
    </vehicle>
    <vehicle id="35" depart="35.00">
        <route edges="251308522#2 251308522#3 1033446440 1033446433 1033446435 1320211316#0 1320211316#1 1320211316#2 251308510#1 251308510#2 251308510#3 251308510#4 251308512 1292756086 45763026"/>
    </vehicle>
    <vehicle id="36" depart="36.00">
        <route edges="139633245#2 137189955#0 137189955#1 -137189955#1 -137189955#0 -139633245#2 -139633245#1 -139633245#0 692356901#0 692356901#1 692356901#2 155235380#0 155235380#1 856432637#0 856432637#1 393957072 856432650#0 856432650#1 856432641 381689882#0 381689882#1 381689882#2 381689882#3 381689882#4 381689882#5 381689879 381689880 381689881 381689878 258834782 1292756087 393957069#0 393957069#1 393957069#2 393957069#3 393957069#4 393957069#5 393957069#6 251308513 251308515#0 251308515#1 251308515#2 251308515#3 251308515#4 170232040#0 170232040#1 170232040#2 170232040#3 170232040#4 170232040#5 39683342#0 39683342#1 -39683342#1"/>
    </vehicle>
    <vehicle id="37" depart="37.00">
        <route edges="-242897860#7 -242897860#6 -242897860#5 -242897860#4 -242897860#3 -242897860#2 -242897860#1 -242897860#0 44358375#2 44358375#3 44358375#4 44358375#5 44358375#6 44358375#7 44358375#8 -1410853757"/>
    </vehicle>
    <vehicle id="38" depart="38.00">
        <route edges="-251311712#15 -251311712#14 -251311712#13 -251311712#12 -251311712#11 26959791#0 26959791#1 26959791#2 216480476#0 170232025#5 216480479#0 216480479#1 216480479#2 216480479#3 216480479#4 216480479#5 216480472#0 216480472#1 216480472#2 216480472#3 216480472#4 1100735529#0 1100735529#1 1100735527#0 1100735527#1 1100735527#2 1378649265 1378649264 26959128"/>
    </vehicle>
    <vehicle id="39" depart="39.00">
        <route edges="39436452#2 1190067594#2 1190067594#3 -251311712#4 -251311712#3 -251311712#2 -251311712#1 -251311712#0 -1319817771 251311713#0 251311713#1 251311713#2 251311713#3 251311713#4 251311713#5 251311713#6 216480481 261815516 251455095 170232052 1225191488#0 1225191488#1 243502036 887586457 261815525 415221607 887586454 251455097 886233768 18570435#0 18570435#1 18570435#2 952392261 952548695 1225191485 1225134826 1381387151 856432645#0 856432645#1 856432645#2 856432645#3 856432645#4 856432645#5 856432645#6 856432645#7 856432645#8 856432645#9 144775072#1"/>
    </vehicle>
    <vehicle id="40" depart="40.00">
        <route edges="-170232040#0 -1319974946 19020758#0 19020758#1 19020758#2 19020758#3 19020758#4 19020758#5 19020758#6 144763035#0 144763035#1 144763035#2 144763035#3 144763035#4 144763035#5 1377700065#0 1377700065#1"/>
    </vehicle>
    <vehicle id="41" depart="41.00">
        <route edges="965405380 251308524#0 251308524#1 251308524#2 251308524#3 251308524#4 251308524#5 251308524#6 251308524#7 251308524#8 886671960 96781394#0 96781394#1 96781394#2 26959785#0 26959785#1 26959785#2 89849995#4 236959052#0 236959052#1 60719576#0 60719576#1 60719577 236959054#0 236959054#1 216480477 216480483#8 216480482#0 216480482#1 216480482#2"/>
    </vehicle>
    <vehicle id="42" depart="42.00">
        <route edges="375809348#7 251308515#0 251308515#1 251308515#2 251308515#3 251308515#4 1319817772#0 1319817772#1 965405376#0 965405376#1 965405375 965405377 26959131 965405384 251308528#0 251308528#1 -251308509#3 -251308509#2 -251308509#1 -251308509#0 36990137#0 36990137#1 36990137#2 36990137#3 45766795 45766793 89882385 89882383#0 89882383#1 89882383#2 89882383#3 89882382 89882384 45763027 45763023#0 45763023#1 45763023#2 45763023#3 261815511#1 261815511#2 261815511#3 261815511#4 261815511#5 261815511#6 -381689886#2 -381689886#1 -381689886#0 216480484#0 216480484#1"/>
    </vehicle>
    <vehicle id="43" depart="43.00">
        <route edges="-45644146#13 39393242#0 39393242#1 39393242#2 39393242#3 381689886#2 381689885#0 381689885#1 381689885#2 381689885#3 381689885#4 381689885#5 381689885#6 381689885#7 381689885#8 251308523#0 251308523#1 251308523#2 251308523#3 251308523#4 251308523#5 39383378#0 39383378#1 39383378#2 1100735526 251308522#0 251308522#1 251308522#2 251308522#3 1033446440 1033446433 -1033446437#1 -1033446437#0 -261815503 -144763014 -887586458 415221607 887586454 251455097 886233768 18570435#0 18570435#1 18570435#2 -1381344955#2 -1381344955#1 -1381344955#0 -27085402#15 -27085402#14 27085402#14 27085402#15"/>
    </vehicle>
    <vehicle id="44" depart="44.00">
        <route edges="-251311712#3 -251311712#2 -251311712#1 -251311712#0 -1319817771 251311713#0 251311713#1 251311713#2 251311713#3 251311713#4 251311713#5 251311713#6 216480481 261815516 251455095 170232052 1225191488#0 1225191488#1 243502036 887586457 261815525 415221607 887586454 251455097 886233768 18570435#0 18570435#1 18570435#2 886233770 856432646 1225134825 1381387150#0 1381387150#1 155235356#0 155235356#1 155235356#2 -692356901#2 -692356901#1 -692356901#0 139633245#0 139633245#1 139633245#2 137189955#0 137189955#1 896047306 155224464#0 155224464#1 155224464#2 155224464#3 155224457#0"/>
    </vehicle>
    <vehicle id="45" depart="45.00">